
---------- Begin Simulation Statistics ----------
simSeconds                                   0.000071                       # Number of seconds simulated (Second)
simTicks                                     71438000                       # Number of ticks simulated (Tick)
finalTick                                    71438000                       # Number of ticks from beginning of simulation (restored from checkpoints and never reset) (Tick)
simFreq                                  1000000000000                       # The number of ticks per simulated second ((Tick/Second))
hostSeconds                                      1.53                       # Real time elapsed on the host (Second)
hostTickRate                                 46586060                       # The number of ticks simulated per host second (ticks/s) ((Tick/Second))
hostMemory                                    2298384                       # Number of bytes of host memory used (Byte)
simInsts                                       130373                       # Number of instructions simulated (Count)
simOps                                         236903                       # Number of ops (including micro ops) simulated (Count)
hostInstRate                                    84831                       # Simulator instruction rate (inst/s) ((Count/Second))
hostOpRate                                     154123                       # Simulator op (including micro ops) rate (op/s) ((Count/Second))
system.clk_domain.clock                           500                       # Clock period in ticks (Tick)
system.clk_domain.voltage_domain.voltage            1                       # Voltage in Volts (Volt)
system.cpu0.numCycles                          142879                       # Number of cpu cycles simulated (Cycle)
system.cpu0.cpi                              1.095925                       # CPI: cycles per instruction (core level) ((Cycle/Count))
system.cpu0.ipc                              0.912471                       # IPC: instructions per cycle (core level) ((Count/Cycle))
system.cpu0.numWorkItemsStarted                     0                       # Number of work items this cpu started (Count)
system.cpu0.numWorkItemsCompleted                   0                       # Number of work items this cpu completed (Count)
system.cpu0.instsAdded                         249568                       # Number of instructions added to the IQ (excludes non-spec) (Count)
system.cpu0.nonSpecInstsAdded                     147                       # Number of non-speculative instructions added to the IQ (Count)
system.cpu0.instsIssued                        246773                       # Number of instructions issued (Count)
system.cpu0.squashedInstsIssued                   180                       # Number of squashed instructions issued (Count)
system.cpu0.squashedInstsExamined               12794                       # Number of squashed instructions iterated over during squash; mainly for profiling (Count)
system.cpu0.squashedOperandsExamined            17278                       # Number of squashed operands that are examined and possibly removed from graph (Count)
system.cpu0.squashedNonSpecRemoved                 75                       # Number of squashed non-spec instructions that were removed (Count)
system.cpu0.numIssuedDist::samples             106884                       # Number of insts issued each cycle (Count)
system.cpu0.numIssuedDist::mean              2.308793                       # Number of insts issued each cycle (Count)
system.cpu0.numIssuedDist::stdev             1.666538                       # Number of insts issued each cycle (Count)
system.cpu0.numIssuedDist::underflows               0      0.00%      0.00% # Number of insts issued each cycle (Count)
system.cpu0.numIssuedDist::0                    31187     29.18%     29.18% # Number of insts issued each cycle (Count)
system.cpu0.numIssuedDist::1                     5186      4.85%     34.03% # Number of insts issued each cycle (Count)
system.cpu0.numIssuedDist::2                     8218      7.69%     41.72% # Number of insts issued each cycle (Count)
system.cpu0.numIssuedDist::3                    24021     22.47%     64.19% # Number of insts issued each cycle (Count)
system.cpu0.numIssuedDist::4                    38272     35.81%    100.00% # Number of insts issued each cycle (Count)
system.cpu0.numIssuedDist::overflows                0      0.00%    100.00% # Number of insts issued each cycle (Count)
system.cpu0.numIssuedDist::min_value                0                       # Number of insts issued each cycle (Count)
system.cpu0.numIssuedDist::max_value                4                       # Number of insts issued each cycle (Count)
system.cpu0.numIssuedDist::total               106884                       # Number of insts issued each cycle (Count)
system.cpu0.statFuBusy::No_OpClass                  0                       # attempts to use FU when none available (Count)
system.cpu0.statFuBusy::IntAlu                      0                       # attempts to use FU when none available (Count)
system.cpu0.statFuBusy::IntMult                     0                       # attempts to use FU when none available (Count)
system.cpu0.statFuBusy::IntDiv                      0                       # attempts to use FU when none available (Count)
system.cpu0.statFuBusy::FloatAdd                    0                       # attempts to use FU when none available (Count)
system.cpu0.statFuBusy::FloatCmp                    0                       # attempts to use FU when none available (Count)
system.cpu0.statFuBusy::FloatCvt                    0                       # attempts to use FU when none available (Count)
system.cpu0.statFuBusy::FloatMult                   0                       # attempts to use FU when none available (Count)
system.cpu0.statFuBusy::FloatMultAcc                0                       # attempts to use FU when none available (Count)
system.cpu0.statFuBusy::FloatDiv                    0                       # attempts to use FU when none available (Count)
system.cpu0.statFuBusy::FloatMisc                   0                       # attempts to use FU when none available (Count)
system.cpu0.statFuBusy::FloatSqrt                   0                       # attempts to use FU when none available (Count)
system.cpu0.statFuBusy::SimdAdd                     0                       # attempts to use FU when none available (Count)
system.cpu0.statFuBusy::SimdAddAcc                  0                       # attempts to use FU when none available (Count)
system.cpu0.statFuBusy::SimdAlu                     0                       # attempts to use FU when none available (Count)
system.cpu0.statFuBusy::SimdCmp                     0                       # attempts to use FU when none available (Count)
system.cpu0.statFuBusy::SimdCvt                     0                       # attempts to use FU when none available (Count)
system.cpu0.statFuBusy::SimdMisc                    0                       # attempts to use FU when none available (Count)
system.cpu0.statFuBusy::SimdMult                    0                       # attempts to use FU when none available (Count)
system.cpu0.statFuBusy::SimdMultAcc                 0                       # attempts to use FU when none available (Count)
system.cpu0.statFuBusy::SimdMatMultAcc              0                       # attempts to use FU when none available (Count)
system.cpu0.statFuBusy::SimdShift                   0                       # attempts to use FU when none available (Count)
system.cpu0.statFuBusy::SimdShiftAcc                0                       # attempts to use FU when none available (Count)
system.cpu0.statFuBusy::SimdDiv                     0                       # attempts to use FU when none available (Count)
system.cpu0.statFuBusy::SimdSqrt                    0                       # attempts to use FU when none available (Count)
system.cpu0.statFuBusy::SimdFloatAdd                0                       # attempts to use FU when none available (Count)
system.cpu0.statFuBusy::SimdFloatAlu                0                       # attempts to use FU when none available (Count)
system.cpu0.statFuBusy::SimdFloatCmp                0                       # attempts to use FU when none available (Count)
system.cpu0.statFuBusy::SimdFloatCvt                0                       # attempts to use FU when none available (Count)
system.cpu0.statFuBusy::SimdFloatDiv                0                       # attempts to use FU when none available (Count)
system.cpu0.statFuBusy::SimdFloatMisc               0                       # attempts to use FU when none available (Count)
system.cpu0.statFuBusy::SimdFloatMult               0                       # attempts to use FU when none available (Count)
system.cpu0.statFuBusy::SimdFloatMultAcc            0                       # attempts to use FU when none available (Count)
system.cpu0.statFuBusy::SimdFloatMatMultAcc            0                       # attempts to use FU when none available (Count)
system.cpu0.statFuBusy::SimdFloatSqrt               0                       # attempts to use FU when none available (Count)
system.cpu0.statFuBusy::SimdReduceAdd               0                       # attempts to use FU when none available (Count)
system.cpu0.statFuBusy::SimdReduceAlu               0                       # attempts to use FU when none available (Count)
system.cpu0.statFuBusy::SimdReduceCmp               0                       # attempts to use FU when none available (Count)
system.cpu0.statFuBusy::SimdFloatReduceAdd            0                       # attempts to use FU when none available (Count)
system.cpu0.statFuBusy::SimdFloatReduceCmp            0                       # attempts to use FU when none available (Count)
system.cpu0.statFuBusy::SimdAes                     0                       # attempts to use FU when none available (Count)
system.cpu0.statFuBusy::SimdAesMix                  0                       # attempts to use FU when none available (Count)
system.cpu0.statFuBusy::SimdSha1Hash                0                       # attempts to use FU when none available (Count)
system.cpu0.statFuBusy::SimdSha1Hash2               0                       # attempts to use FU when none available (Count)
system.cpu0.statFuBusy::SimdSha256Hash              0                       # attempts to use FU when none available (Count)
system.cpu0.statFuBusy::SimdSha256Hash2             0                       # attempts to use FU when none available (Count)
system.cpu0.statFuBusy::SimdShaSigma2               0                       # attempts to use FU when none available (Count)
system.cpu0.statFuBusy::SimdShaSigma3               0                       # attempts to use FU when none available (Count)
system.cpu0.statFuBusy::SimdPredAlu                 0                       # attempts to use FU when none available (Count)
system.cpu0.statFuBusy::Matrix                      0                       # attempts to use FU when none available (Count)
system.cpu0.statFuBusy::MatrixMov                   0                       # attempts to use FU when none available (Count)
system.cpu0.statFuBusy::MatrixOP                    0                       # attempts to use FU when none available (Count)
system.cpu0.statFuBusy::MemRead                     0                       # attempts to use FU when none available (Count)
system.cpu0.statFuBusy::MemWrite                    0                       # attempts to use FU when none available (Count)
system.cpu0.statFuBusy::FloatMemRead                0                       # attempts to use FU when none available (Count)
system.cpu0.statFuBusy::FloatMemWrite               0                       # attempts to use FU when none available (Count)
system.cpu0.statFuBusy::IprAccess                   0                       # attempts to use FU when none available (Count)
system.cpu0.statFuBusy::InstPrefetch                0                       # attempts to use FU when none available (Count)
system.cpu0.statFuBusy::SimdUnitStrideLoad            0                       # attempts to use FU when none available (Count)
system.cpu0.statFuBusy::SimdUnitStrideStore            0                       # attempts to use FU when none available (Count)
system.cpu0.statFuBusy::SimdUnitStrideMaskLoad            0                       # attempts to use FU when none available (Count)
system.cpu0.statFuBusy::SimdUnitStrideMaskStore            0                       # attempts to use FU when none available (Count)
system.cpu0.statFuBusy::SimdStridedLoad             0                       # attempts to use FU when none available (Count)
system.cpu0.statFuBusy::SimdStridedStore            0                       # attempts to use FU when none available (Count)
system.cpu0.statFuBusy::SimdIndexedLoad             0                       # attempts to use FU when none available (Count)
system.cpu0.statFuBusy::SimdIndexedStore            0                       # attempts to use FU when none available (Count)
system.cpu0.statFuBusy::SimdWholeRegisterLoad            0                       # attempts to use FU when none available (Count)
system.cpu0.statFuBusy::SimdWholeRegisterStore            0                       # attempts to use FU when none available (Count)
system.cpu0.statFuBusy::SimdUnitStrideFaultOnlyFirstLoad            0                       # attempts to use FU when none available (Count)
system.cpu0.statFuBusy::SimdUnitStrideSegmentedLoad            0                       # attempts to use FU when none available (Count)
system.cpu0.statFuBusy::SimdUnitStrideSegmentedStore            0                       # attempts to use FU when none available (Count)
system.cpu0.statFuBusy::SimdExt                     0                       # attempts to use FU when none available (Count)
system.cpu0.statFuBusy::SimdFloatExt                0                       # attempts to use FU when none available (Count)
system.cpu0.statFuBusy::SimdConfig                  0                       # attempts to use FU when none available (Count)
system.cpu0.statIssuedInstType_0::No_OpClass          455      0.18%      0.18% # Number of instructions issued per FU type, per thread (Count)
system.cpu0.statIssuedInstType_0::IntAlu       213461     86.50%     86.69% # Number of instructions issued per FU type, per thread (Count)
system.cpu0.statIssuedInstType_0::IntMult           46      0.02%     86.70% # Number of instructions issued per FU type, per thread (Count)
system.cpu0.statIssuedInstType_0::IntDiv           43      0.02%     86.72% # Number of instructions issued per FU type, per thread (Count)
system.cpu0.statIssuedInstType_0::FloatAdd          174      0.07%     86.79% # Number of instructions issued per FU type, per thread (Count)
system.cpu0.statIssuedInstType_0::FloatCmp            0      0.00%     86.79% # Number of instructions issued per FU type, per thread (Count)
system.cpu0.statIssuedInstType_0::FloatCvt            0      0.00%     86.79% # Number of instructions issued per FU type, per thread (Count)
system.cpu0.statIssuedInstType_0::FloatMult            0      0.00%     86.79% # Number of instructions issued per FU type, per thread (Count)
system.cpu0.statIssuedInstType_0::FloatMultAcc            0      0.00%     86.79% # Number of instructions issued per FU type, per thread (Count)
system.cpu0.statIssuedInstType_0::FloatDiv            0      0.00%     86.79% # Number of instructions issued per FU type, per thread (Count)
system.cpu0.statIssuedInstType_0::FloatMisc            0      0.00%     86.79% # Number of instructions issued per FU type, per thread (Count)
system.cpu0.statIssuedInstType_0::FloatSqrt            0      0.00%     86.79% # Number of instructions issued per FU type, per thread (Count)
system.cpu0.statIssuedInstType_0::SimdAdd           10      0.00%     86.80% # Number of instructions issued per FU type, per thread (Count)
system.cpu0.statIssuedInstType_0::SimdAddAcc            0      0.00%     86.80% # Number of instructions issued per FU type, per thread (Count)
system.cpu0.statIssuedInstType_0::SimdAlu          269      0.11%     86.90% # Number of instructions issued per FU type, per thread (Count)
system.cpu0.statIssuedInstType_0::SimdCmp            0      0.00%     86.90% # Number of instructions issued per FU type, per thread (Count)
system.cpu0.statIssuedInstType_0::SimdCvt           76      0.03%     86.94% # Number of instructions issued per FU type, per thread (Count)
system.cpu0.statIssuedInstType_0::SimdMisc          244      0.10%     87.03% # Number of instructions issued per FU type, per thread (Count)
system.cpu0.statIssuedInstType_0::SimdMult            0      0.00%     87.03% # Number of instructions issued per FU type, per thread (Count)
system.cpu0.statIssuedInstType_0::SimdMultAcc            0      0.00%     87.03% # Number of instructions issued per FU type, per thread (Count)
system.cpu0.statIssuedInstType_0::SimdMatMultAcc            0      0.00%     87.03% # Number of instructions issued per FU type, per thread (Count)
system.cpu0.statIssuedInstType_0::SimdShift            3      0.00%     87.04% # Number of instructions issued per FU type, per thread (Count)
system.cpu0.statIssuedInstType_0::SimdShiftAcc            0      0.00%     87.04% # Number of instructions issued per FU type, per thread (Count)
system.cpu0.statIssuedInstType_0::SimdDiv            0      0.00%     87.04% # Number of instructions issued per FU type, per thread (Count)
system.cpu0.statIssuedInstType_0::SimdSqrt            0      0.00%     87.04% # Number of instructions issued per FU type, per thread (Count)
system.cpu0.statIssuedInstType_0::SimdFloatAdd            0      0.00%     87.04% # Number of instructions issued per FU type, per thread (Count)
system.cpu0.statIssuedInstType_0::SimdFloatAlu            0      0.00%     87.04% # Number of instructions issued per FU type, per thread (Count)
system.cpu0.statIssuedInstType_0::SimdFloatCmp            0      0.00%     87.04% # Number of instructions issued per FU type, per thread (Count)
system.cpu0.statIssuedInstType_0::SimdFloatCvt            0      0.00%     87.04% # Number of instructions issued per FU type, per thread (Count)
system.cpu0.statIssuedInstType_0::SimdFloatDiv            0      0.00%     87.04% # Number of instructions issued per FU type, per thread (Count)
system.cpu0.statIssuedInstType_0::SimdFloatMisc            0      0.00%     87.04% # Number of instructions issued per FU type, per thread (Count)
system.cpu0.statIssuedInstType_0::SimdFloatMult            0      0.00%     87.04% # Number of instructions issued per FU type, per thread (Count)
system.cpu0.statIssuedInstType_0::SimdFloatMultAcc            0      0.00%     87.04% # Number of instructions issued per FU type, per thread (Count)
system.cpu0.statIssuedInstType_0::SimdFloatMatMultAcc            0      0.00%     87.04% # Number of instructions issued per FU type, per thread (Count)
system.cpu0.statIssuedInstType_0::SimdFloatSqrt            0      0.00%     87.04% # Number of instructions issued per FU type, per thread (Count)
system.cpu0.statIssuedInstType_0::SimdReduceAdd            0      0.00%     87.04% # Number of instructions issued per FU type, per thread (Count)
system.cpu0.statIssuedInstType_0::SimdReduceAlu            0      0.00%     87.04% # Number of instructions issued per FU type, per thread (Count)
system.cpu0.statIssuedInstType_0::SimdReduceCmp            0      0.00%     87.04% # Number of instructions issued per FU type, per thread (Count)
system.cpu0.statIssuedInstType_0::SimdFloatReduceAdd            0      0.00%     87.04% # Number of instructions issued per FU type, per thread (Count)
system.cpu0.statIssuedInstType_0::SimdFloatReduceCmp            0      0.00%     87.04% # Number of instructions issued per FU type, per thread (Count)
system.cpu0.statIssuedInstType_0::SimdAes            0      0.00%     87.04% # Number of instructions issued per FU type, per thread (Count)
system.cpu0.statIssuedInstType_0::SimdAesMix            0      0.00%     87.04% # Number of instructions issued per FU type, per thread (Count)
system.cpu0.statIssuedInstType_0::SimdSha1Hash            0      0.00%     87.04% # Number of instructions issued per FU type, per thread (Count)
system.cpu0.statIssuedInstType_0::SimdSha1Hash2            0      0.00%     87.04% # Number of instructions issued per FU type, per thread (Count)
system.cpu0.statIssuedInstType_0::SimdSha256Hash            0      0.00%     87.04% # Number of instructions issued per FU type, per thread (Count)
system.cpu0.statIssuedInstType_0::SimdSha256Hash2            0      0.00%     87.04% # Number of instructions issued per FU type, per thread (Count)
system.cpu0.statIssuedInstType_0::SimdShaSigma2            0      0.00%     87.04% # Number of instructions issued per FU type, per thread (Count)
system.cpu0.statIssuedInstType_0::SimdShaSigma3            0      0.00%     87.04% # Number of instructions issued per FU type, per thread (Count)
system.cpu0.statIssuedInstType_0::SimdPredAlu            0      0.00%     87.04% # Number of instructions issued per FU type, per thread (Count)
system.cpu0.statIssuedInstType_0::Matrix            0      0.00%     87.04% # Number of instructions issued per FU type, per thread (Count)
system.cpu0.statIssuedInstType_0::MatrixMov            0      0.00%     87.04% # Number of instructions issued per FU type, per thread (Count)
system.cpu0.statIssuedInstType_0::MatrixOP            0      0.00%     87.04% # Number of instructions issued per FU type, per thread (Count)
system.cpu0.statIssuedInstType_0::MemRead        20523      8.32%     95.35% # Number of instructions issued per FU type, per thread (Count)
system.cpu0.statIssuedInstType_0::MemWrite        10710      4.34%     99.69% # Number of instructions issued per FU type, per thread (Count)
system.cpu0.statIssuedInstType_0::FloatMemRead          163      0.07%     99.76% # Number of instructions issued per FU type, per thread (Count)
system.cpu0.statIssuedInstType_0::FloatMemWrite          596      0.24%    100.00% # Number of instructions issued per FU type, per thread (Count)
system.cpu0.statIssuedInstType_0::IprAccess            0      0.00%    100.00% # Number of instructions issued per FU type, per thread (Count)
system.cpu0.statIssuedInstType_0::InstPrefetch            0      0.00%    100.00% # Number of instructions issued per FU type, per thread (Count)
system.cpu0.statIssuedInstType_0::SimdUnitStrideLoad            0      0.00%    100.00% # Number of instructions issued per FU type, per thread (Count)
system.cpu0.statIssuedInstType_0::SimdUnitStrideStore            0      0.00%    100.00% # Number of instructions issued per FU type, per thread (Count)
system.cpu0.statIssuedInstType_0::SimdUnitStrideMaskLoad            0      0.00%    100.00% # Number of instructions issued per FU type, per thread (Count)
system.cpu0.statIssuedInstType_0::SimdUnitStrideMaskStore            0      0.00%    100.00% # Number of instructions issued per FU type, per thread (Count)
system.cpu0.statIssuedInstType_0::SimdStridedLoad            0      0.00%    100.00% # Number of instructions issued per FU type, per thread (Count)
system.cpu0.statIssuedInstType_0::SimdStridedStore            0      0.00%    100.00% # Number of instructions issued per FU type, per thread (Count)
system.cpu0.statIssuedInstType_0::SimdIndexedLoad            0      0.00%    100.00% # Number of instructions issued per FU type, per thread (Count)
system.cpu0.statIssuedInstType_0::SimdIndexedStore            0      0.00%    100.00% # Number of instructions issued per FU type, per thread (Count)
system.cpu0.statIssuedInstType_0::SimdWholeRegisterLoad            0      0.00%    100.00% # Number of instructions issued per FU type, per thread (Count)
system.cpu0.statIssuedInstType_0::SimdWholeRegisterStore            0      0.00%    100.00% # Number of instructions issued per FU type, per thread (Count)
system.cpu0.statIssuedInstType_0::SimdUnitStrideFaultOnlyFirstLoad            0      0.00%    100.00% # Number of instructions issued per FU type, per thread (Count)
system.cpu0.statIssuedInstType_0::SimdUnitStrideSegmentedLoad            0      0.00%    100.00% # Number of instructions issued per FU type, per thread (Count)
system.cpu0.statIssuedInstType_0::SimdUnitStrideSegmentedStore            0      0.00%    100.00% # Number of instructions issued per FU type, per thread (Count)
system.cpu0.statIssuedInstType_0::SimdExt            0      0.00%    100.00% # Number of instructions issued per FU type, per thread (Count)
system.cpu0.statIssuedInstType_0::SimdFloatExt            0      0.00%    100.00% # Number of instructions issued per FU type, per thread (Count)
system.cpu0.statIssuedInstType_0::SimdConfig            0      0.00%    100.00% # Number of instructions issued per FU type, per thread (Count)
system.cpu0.statIssuedInstType_0::total        246773                       # Number of instructions issued per FU type, per thread (Count)
system.cpu0.issueRate                        1.727147                       # Inst issue rate ((Count/Cycle))
system.cpu0.fuBusy                                  0                       # FU busy when requested (Count)
system.cpu0.fuBusyRate                              0                       # FU busy rate (busy events/executed inst) ((Count/Count))
system.cpu0.intInstQueueReads                  597207                       # Number of integer instruction queue reads (Count)
system.cpu0.intInstQueueWrites                 260565                       # Number of integer instruction queue writes (Count)
system.cpu0.intInstQueueWakeupAccesses         244116                       # Number of integer instruction queue wakeup accesses (Count)
system.cpu0.fpInstQueueReads                     3400                       # Number of floating instruction queue reads (Count)
system.cpu0.fpInstQueueWrites                    1963                       # Number of floating instruction queue writes (Count)
system.cpu0.fpInstQueueWakeupAccesses            1654                       # Number of floating instruction queue wakeup accesses (Count)
system.cpu0.vecInstQueueReads                       0                       # Number of vector instruction queue reads (Count)
system.cpu0.vecInstQueueWrites                      0                       # Number of vector instruction queue writes (Count)
system.cpu0.vecInstQueueWakeupAccesses              0                       # Number of vector instruction queue wakeup accesses (Count)
system.cpu0.intAluAccesses                     244619                       # Number of integer alu accesses (Count)
system.cpu0.fpAluAccesses                        1699                       # Number of floating point alu accesses (Count)
system.cpu0.vecAluAccesses                          0                       # Number of vector alu accesses (Count)
system.cpu0.numSquashedInsts                      544                       # Number of squashed instructions skipped in execute (Count)
system.cpu0.numSwp                                  0                       # Number of swp insts executed (Count)
system.cpu0.timesIdled                            444                       # Number of times that the entire CPU went into an idle state and unscheduled itself (Count)
system.cpu0.idleCycles                          35995                       # Total number of cycles that the CPU has spent unscheduled due to idling (Cycle)
system.cpu0.MemDepUnit__0.insertedLoads         21042                       # Number of loads inserted to the mem dependence unit. (Count)
system.cpu0.MemDepUnit__0.insertedStores        11573                       # Number of stores inserted to the mem dependence unit. (Count)
system.cpu0.MemDepUnit__0.conflictingLoads         3370                       # Number of conflicting loads. (Count)
system.cpu0.MemDepUnit__0.conflictingStores          182                       # Number of conflicting stores. (Count)
system.cpu0.MemDepUnit__1.insertedLoads             0                       # Number of loads inserted to the mem dependence unit. (Count)
system.cpu0.MemDepUnit__1.insertedStores            0                       # Number of stores inserted to the mem dependence unit. (Count)
system.cpu0.MemDepUnit__1.conflictingLoads            0                       # Number of conflicting loads. (Count)
system.cpu0.MemDepUnit__1.conflictingStores            0                       # Number of conflicting stores. (Count)
system.cpu0.MemDepUnit__2.insertedLoads             0                       # Number of loads inserted to the mem dependence unit. (Count)
system.cpu0.MemDepUnit__2.insertedStores            0                       # Number of stores inserted to the mem dependence unit. (Count)
system.cpu0.MemDepUnit__2.conflictingLoads            0                       # Number of conflicting loads. (Count)
system.cpu0.MemDepUnit__2.conflictingStores            0                       # Number of conflicting stores. (Count)
system.cpu0.MemDepUnit__3.insertedLoads             0                       # Number of loads inserted to the mem dependence unit. (Count)
system.cpu0.MemDepUnit__3.insertedStores            0                       # Number of stores inserted to the mem dependence unit. (Count)
system.cpu0.MemDepUnit__3.conflictingLoads            0                       # Number of conflicting loads. (Count)
system.cpu0.MemDepUnit__3.conflictingStores            0                       # Number of conflicting stores. (Count)
system.cpu0.branchPred.lookups_0::NoBranch            4      0.01%      0.01% # Number of BP lookups (Count)
system.cpu0.branchPred.lookups_0::Return         2609      7.15%      7.16% # Number of BP lookups (Count)
system.cpu0.branchPred.lookups_0::CallDirect         2708      7.42%     14.58% # Number of BP lookups (Count)
system.cpu0.branchPred.lookups_0::CallIndirect          133      0.36%     14.95% # Number of BP lookups (Count)
system.cpu0.branchPred.lookups_0::DirectCond        25182     69.02%     83.97% # Number of BP lookups (Count)
system.cpu0.branchPred.lookups_0::DirectUncond         3616      9.91%     93.88% # Number of BP lookups (Count)
system.cpu0.branchPred.lookups_0::IndirectCond            0      0.00%     93.88% # Number of BP lookups (Count)
system.cpu0.branchPred.lookups_0::IndirectUncond         2231      6.12%    100.00% # Number of BP lookups (Count)
system.cpu0.branchPred.lookups_0::total         36483                       # Number of BP lookups (Count)
system.cpu0.branchPred.squashes_0::NoBranch            4      0.12%      0.12% # Number of branches that got squashed (completely removed) as an earlier branch was mispredicted. (Count)
system.cpu0.branchPred.squashes_0::Return          253      7.73%      7.85% # Number of branches that got squashed (completely removed) as an earlier branch was mispredicted. (Count)
system.cpu0.branchPred.squashes_0::CallDirect          394     12.03%     19.88% # Number of branches that got squashed (completely removed) as an earlier branch was mispredicted. (Count)
system.cpu0.branchPred.squashes_0::CallIndirect           86      2.63%     22.50% # Number of branches that got squashed (completely removed) as an earlier branch was mispredicted. (Count)
system.cpu0.branchPred.squashes_0::DirectCond         2140     65.34%     87.85% # Number of branches that got squashed (completely removed) as an earlier branch was mispredicted. (Count)
system.cpu0.branchPred.squashes_0::DirectUncond          304      9.28%     97.13% # Number of branches that got squashed (completely removed) as an earlier branch was mispredicted. (Count)
system.cpu0.branchPred.squashes_0::IndirectCond            0      0.00%     97.13% # Number of branches that got squashed (completely removed) as an earlier branch was mispredicted. (Count)
system.cpu0.branchPred.squashes_0::IndirectUncond           94      2.87%    100.00% # Number of branches that got squashed (completely removed) as an earlier branch was mispredicted. (Count)
system.cpu0.branchPred.squashes_0::total         3275                       # Number of branches that got squashed (completely removed) as an earlier branch was mispredicted. (Count)
system.cpu0.branchPred.corrected_0::NoBranch            0      0.00%      0.00% # Number of branches that got corrected but not yet commited. Branches get corrected by decode or after execute. Also a branch misprediction can be detected out-of-order. Therefore, a corrected branch might not end up beeing committed in case an even earlier branch was mispredicted (Count)
system.cpu0.branchPred.corrected_0::Return            3      0.34%      0.34% # Number of branches that got corrected but not yet commited. Branches get corrected by decode or after execute. Also a branch misprediction can be detected out-of-order. Therefore, a corrected branch might not end up beeing committed in case an even earlier branch was mispredicted (Count)
system.cpu0.branchPred.corrected_0::CallDirect          197     22.54%     22.88% # Number of branches that got corrected but not yet commited. Branches get corrected by decode or after execute. Also a branch misprediction can be detected out-of-order. Therefore, a corrected branch might not end up beeing committed in case an even earlier branch was mispredicted (Count)
system.cpu0.branchPred.corrected_0::CallIndirect           38      4.35%     27.23% # Number of branches that got corrected but not yet commited. Branches get corrected by decode or after execute. Also a branch misprediction can be detected out-of-order. Therefore, a corrected branch might not end up beeing committed in case an even earlier branch was mispredicted (Count)
system.cpu0.branchPred.corrected_0::DirectCond          467     53.43%     80.66% # Number of branches that got corrected but not yet commited. Branches get corrected by decode or after execute. Also a branch misprediction can be detected out-of-order. Therefore, a corrected branch might not end up beeing committed in case an even earlier branch was mispredicted (Count)
system.cpu0.branchPred.corrected_0::DirectUncond          129     14.76%     95.42% # Number of branches that got corrected but not yet commited. Branches get corrected by decode or after execute. Also a branch misprediction can be detected out-of-order. Therefore, a corrected branch might not end up beeing committed in case an even earlier branch was mispredicted (Count)
system.cpu0.branchPred.corrected_0::IndirectCond            0      0.00%     95.42% # Number of branches that got corrected but not yet commited. Branches get corrected by decode or after execute. Also a branch misprediction can be detected out-of-order. Therefore, a corrected branch might not end up beeing committed in case an even earlier branch was mispredicted (Count)
system.cpu0.branchPred.corrected_0::IndirectUncond           40      4.58%    100.00% # Number of branches that got corrected but not yet commited. Branches get corrected by decode or after execute. Also a branch misprediction can be detected out-of-order. Therefore, a corrected branch might not end up beeing committed in case an even earlier branch was mispredicted (Count)
system.cpu0.branchPred.corrected_0::total          874                       # Number of branches that got corrected but not yet commited. Branches get corrected by decode or after execute. Also a branch misprediction can be detected out-of-order. Therefore, a corrected branch might not end up beeing committed in case an even earlier branch was mispredicted (Count)
system.cpu0.branchPred.earlyResteers_0::NoBranch            0                       # Number of branches that got redirected after decode. (Count)
system.cpu0.branchPred.earlyResteers_0::Return            0                       # Number of branches that got redirected after decode. (Count)
system.cpu0.branchPred.earlyResteers_0::CallDirect            0                       # Number of branches that got redirected after decode. (Count)
system.cpu0.branchPred.earlyResteers_0::CallIndirect            0                       # Number of branches that got redirected after decode. (Count)
system.cpu0.branchPred.earlyResteers_0::DirectCond            0                       # Number of branches that got redirected after decode. (Count)
system.cpu0.branchPred.earlyResteers_0::DirectUncond            0                       # Number of branches that got redirected after decode. (Count)
system.cpu0.branchPred.earlyResteers_0::IndirectCond            0                       # Number of branches that got redirected after decode. (Count)
system.cpu0.branchPred.earlyResteers_0::IndirectUncond            0                       # Number of branches that got redirected after decode. (Count)
system.cpu0.branchPred.earlyResteers_0::total            0                       # Number of branches that got redirected after decode. (Count)
system.cpu0.branchPred.committed_0::NoBranch            0      0.00%      0.00% # Number of branches finally committed  (Count)
system.cpu0.branchPred.committed_0::Return         2356      7.10%      7.10% # Number of branches finally committed  (Count)
system.cpu0.branchPred.committed_0::CallDirect         2314      6.97%     14.07% # Number of branches finally committed  (Count)
system.cpu0.branchPred.committed_0::CallIndirect           47      0.14%     14.21% # Number of branches finally committed  (Count)
system.cpu0.branchPred.committed_0::DirectCond        23038     69.39%     83.60% # Number of branches finally committed  (Count)
system.cpu0.branchPred.committed_0::DirectUncond         3309      9.97%     93.56% # Number of branches finally committed  (Count)
system.cpu0.branchPred.committed_0::IndirectCond            0      0.00%     93.56% # Number of branches finally committed  (Count)
system.cpu0.branchPred.committed_0::IndirectUncond         2137      6.44%    100.00% # Number of branches finally committed  (Count)
system.cpu0.branchPred.committed_0::total        33201                       # Number of branches finally committed  (Count)
system.cpu0.branchPred.mispredicted_0::NoBranch            0      0.00%      0.00% # Number of committed branches that were mispredicted. (Count)
system.cpu0.branchPred.mispredicted_0::Return            0      0.00%      0.00% # Number of committed branches that were mispredicted. (Count)
system.cpu0.branchPred.mispredicted_0::CallDirect          101     14.55%     14.55% # Number of committed branches that were mispredicted. (Count)
system.cpu0.branchPred.mispredicted_0::CallIndirect           38      5.48%     20.03% # Number of committed branches that were mispredicted. (Count)
system.cpu0.branchPred.mispredicted_0::DirectCond          439     63.26%     83.29% # Number of committed branches that were mispredicted. (Count)
system.cpu0.branchPred.mispredicted_0::DirectUncond           78     11.24%     94.52% # Number of committed branches that were mispredicted. (Count)
system.cpu0.branchPred.mispredicted_0::IndirectCond            0      0.00%     94.52% # Number of committed branches that were mispredicted. (Count)
system.cpu0.branchPred.mispredicted_0::IndirectUncond           38      5.48%    100.00% # Number of committed branches that were mispredicted. (Count)
system.cpu0.branchPred.mispredicted_0::total          694                       # Number of committed branches that were mispredicted. (Count)
system.cpu0.branchPred.targetProvider_0::NoTarget        21691     59.46%     59.46% # The component providing the target for taken branches (Count)
system.cpu0.branchPred.targetProvider_0::BTB        10040     27.52%     86.97% # The component providing the target for taken branches (Count)
system.cpu0.branchPred.targetProvider_0::RAS         2609      7.15%     94.13% # The component providing the target for taken branches (Count)
system.cpu0.branchPred.targetProvider_0::Indirect         2143      5.87%    100.00% # The component providing the target for taken branches (Count)
system.cpu0.branchPred.targetProvider_0::total        36483                       # The component providing the target for taken branches (Count)
system.cpu0.branchPred.targetWrong_0::NoBranch          800     92.38%     92.38% # Number of branches where the target was incorrect or not available at prediction time. (Count)
system.cpu0.branchPred.targetWrong_0::Return           62      7.16%     99.54% # Number of branches where the target was incorrect or not available at prediction time. (Count)
system.cpu0.branchPred.targetWrong_0::CallDirect            3      0.35%     99.88% # Number of branches where the target was incorrect or not available at prediction time. (Count)
system.cpu0.branchPred.targetWrong_0::CallIndirect            1      0.12%    100.00% # Number of branches where the target was incorrect or not available at prediction time. (Count)
system.cpu0.branchPred.targetWrong_0::DirectCond            0      0.00%    100.00% # Number of branches where the target was incorrect or not available at prediction time. (Count)
system.cpu0.branchPred.targetWrong_0::DirectUncond            0      0.00%    100.00% # Number of branches where the target was incorrect or not available at prediction time. (Count)
system.cpu0.branchPred.targetWrong_0::IndirectCond            0      0.00%    100.00% # Number of branches where the target was incorrect or not available at prediction time. (Count)
system.cpu0.branchPred.targetWrong_0::IndirectUncond            0      0.00%    100.00% # Number of branches where the target was incorrect or not available at prediction time. (Count)
system.cpu0.branchPred.targetWrong_0::total          866                       # Number of branches where the target was incorrect or not available at prediction time. (Count)
system.cpu0.branchPred.condPredicted            25186                       # Number of conditional branches predicted (Count)
system.cpu0.branchPred.condPredictedTaken         4277                       # Number of conditional branches predicted as taken (Count)
system.cpu0.branchPred.condIncorrect              874                       # Number of conditional branches incorrect (Count)
system.cpu0.branchPred.predTakenBTBMiss           325                       # Number of branches predicted taken but missed in BTB (Count)
system.cpu0.branchPred.NotTakenMispredicted          814                       # Number branches predicted 'not taken' but turned out to be taken (Count)
system.cpu0.branchPred.TakenMispredicted           60                       # Number branches predicted taken but are actually not taken (Count)
system.cpu0.branchPred.BTBLookups               36483                       # Number of BTB lookups (Count)
system.cpu0.branchPred.BTBUpdates                 733                       # Number of BTB updates (Count)
system.cpu0.branchPred.BTBHits                  13545                       # Number of BTB hits (Count)
system.cpu0.branchPred.BTBHitRatio           0.371269                       # BTB Hit Ratio (Ratio)
system.cpu0.branchPred.BTBMispredicted            616                       # Number BTB mispredictions. No target found or target wrong (Count)
system.cpu0.branchPred.indirectLookups           2364                       # Number of indirect predictor lookups. (Count)
system.cpu0.branchPred.indirectHits              2143                       # Number of indirect target hits. (Count)
system.cpu0.branchPred.indirectMisses             221                       # Number of indirect misses. (Count)
system.cpu0.branchPred.indirectMispredicted            0                       # Number of mispredicted indirect branches. (Count)
system.cpu0.branchPred.btb.lookups::NoBranch            4      0.01%      0.01% # Number of BTB lookups (Count)
system.cpu0.branchPred.btb.lookups::Return         2609      7.15%      7.16% # Number of BTB lookups (Count)
system.cpu0.branchPred.btb.lookups::CallDirect         2708      7.42%     14.58% # Number of BTB lookups (Count)
system.cpu0.branchPred.btb.lookups::CallIndirect          133      0.36%     14.95% # Number of BTB lookups (Count)
system.cpu0.branchPred.btb.lookups::DirectCond        25182     69.02%     83.97% # Number of BTB lookups (Count)
system.cpu0.branchPred.btb.lookups::DirectUncond         3616      9.91%     93.88% # Number of BTB lookups (Count)
system.cpu0.branchPred.btb.lookups::IndirectCond            0      0.00%     93.88% # Number of BTB lookups (Count)
system.cpu0.branchPred.btb.lookups::IndirectUncond         2231      6.12%    100.00% # Number of BTB lookups (Count)
system.cpu0.branchPred.btb.lookups::total        36483                       # Number of BTB lookups (Count)
system.cpu0.branchPred.btb.misses::NoBranch            4      0.02%      0.02% # Number of BTB misses (Count)
system.cpu0.branchPred.btb.misses::Return         2607     11.37%     11.38% # Number of BTB misses (Count)
system.cpu0.branchPred.btb.misses::CallDirect          333      1.45%     12.83% # Number of BTB misses (Count)
system.cpu0.branchPred.btb.misses::CallIndirect          133      0.58%     13.41% # Number of BTB misses (Count)
system.cpu0.branchPred.btb.misses::DirectCond        17430     75.99%     89.40% # Number of BTB misses (Count)
system.cpu0.branchPred.btb.misses::DirectUncond          200      0.87%     90.27% # Number of BTB misses (Count)
system.cpu0.branchPred.btb.misses::IndirectCond            0      0.00%     90.27% # Number of BTB misses (Count)
system.cpu0.branchPred.btb.misses::IndirectUncond         2231      9.73%    100.00% # Number of BTB misses (Count)
system.cpu0.branchPred.btb.misses::total        22938                       # Number of BTB misses (Count)
system.cpu0.branchPred.btb.updates::NoBranch            0      0.00%      0.00% # Number of BTB updates (Count)
system.cpu0.branchPred.btb.updates::Return            0      0.00%      0.00% # Number of BTB updates (Count)
system.cpu0.branchPred.btb.updates::CallDirect          197     26.88%     26.88% # Number of BTB updates (Count)
system.cpu0.branchPred.btb.updates::CallIndirect            0      0.00%     26.88% # Number of BTB updates (Count)
system.cpu0.branchPred.btb.updates::DirectCond          407     55.53%     82.40% # Number of BTB updates (Count)
system.cpu0.branchPred.btb.updates::DirectUncond          129     17.60%    100.00% # Number of BTB updates (Count)
system.cpu0.branchPred.btb.updates::IndirectCond            0      0.00%    100.00% # Number of BTB updates (Count)
system.cpu0.branchPred.btb.updates::IndirectUncond            0      0.00%    100.00% # Number of BTB updates (Count)
system.cpu0.branchPred.btb.updates::total          733                       # Number of BTB updates (Count)
system.cpu0.branchPred.btb.mispredict::NoBranch            0      0.00%      0.00% # Number of BTB mispredictions. No target found or target wrong. (Count)
system.cpu0.branchPred.btb.mispredict::Return            0      0.00%      0.00% # Number of BTB mispredictions. No target found or target wrong. (Count)
system.cpu0.branchPred.btb.mispredict::CallDirect          197     26.88%     26.88% # Number of BTB mispredictions. No target found or target wrong. (Count)
system.cpu0.branchPred.btb.mispredict::CallIndirect            0      0.00%     26.88% # Number of BTB mispredictions. No target found or target wrong. (Count)
system.cpu0.branchPred.btb.mispredict::DirectCond          407     55.53%     82.40% # Number of BTB mispredictions. No target found or target wrong. (Count)
system.cpu0.branchPred.btb.mispredict::DirectUncond          129     17.60%    100.00% # Number of BTB mispredictions. No target found or target wrong. (Count)
system.cpu0.branchPred.btb.mispredict::IndirectCond            0      0.00%    100.00% # Number of BTB mispredictions. No target found or target wrong. (Count)
system.cpu0.branchPred.btb.mispredict::IndirectUncond            0      0.00%    100.00% # Number of BTB mispredictions. No target found or target wrong. (Count)
system.cpu0.branchPred.btb.mispredict::total          733                       # Number of BTB mispredictions. No target found or target wrong. (Count)
system.cpu0.branchPred.btb.power_state.pwrStateResidencyTicks::UNDEFINED     71438000                       # Cumulative time (in ticks) in various power states (Tick)
system.cpu0.branchPred.indirectBranchPred.lookups         2364                       # Number of lookups (Count)
system.cpu0.branchPred.indirectBranchPred.hits         2143                       # Number of hits of a tag (Count)
system.cpu0.branchPred.indirectBranchPred.misses          221                       # Number of misses (Count)
system.cpu0.branchPred.indirectBranchPred.targetRecords           78                       # Number of targets that where recorded/installed in the cache (Count)
system.cpu0.branchPred.indirectBranchPred.indirectRecords         2442                       # Number of indirect branches/calls recorded in the indirect hist (Count)
system.cpu0.branchPred.indirectBranchPred.speculativeOverflows            1                       # Number of times more than the allowed capacity for speculative branches/calls where in flight and destroy the path history (Count)
system.cpu0.branchPred.ras.pushes                3094                       # Number of times a PC was pushed onto the RAS (Count)
system.cpu0.branchPred.ras.pops                  3089                       # Number of times a PC was poped from the RAS (Count)
system.cpu0.branchPred.ras.squashes               733                       # Number of times the stack operation was squashed due to wrong speculation. (Count)
system.cpu0.branchPred.ras.used                  2356                       # Number of times the RAS is the provider (Count)
system.cpu0.branchPred.ras.correct               2356                       # Number of times the RAS is the provider and the prediction is correct (Count)
system.cpu0.branchPred.ras.incorrect                0                       # Number of times the RAS is the provider and the prediction is wrong (Count)
system.cpu0.branchPred.tage.longestMatchProviderCorrect         5094                       # Number of times TAGE Longest Match is the provider and the prediction is correct (Count)
system.cpu0.branchPred.tage.altMatchProviderCorrect           48                       # Number of times TAGE Alt Match is the provider and the prediction is correct (Count)
system.cpu0.branchPred.tage.bimodalAltMatchProviderCorrect           58                       # Number of times TAGE Alt Match is the bimodal and it is the provider and the prediction is correct (Count)
system.cpu0.branchPred.tage.bimodalProviderCorrect        17392                       # Number of times there are no hits on the TAGE tables and the bimodal prediction is correct (Count)
system.cpu0.branchPred.tage.longestMatchProviderWrong           46                       # Number of times TAGE Longest Match is the provider and the prediction is wrong (Count)
system.cpu0.branchPred.tage.altMatchProviderWrong           18                       # Number of times TAGE Alt Match is the provider and the prediction is wrong (Count)
system.cpu0.branchPred.tage.bimodalAltMatchProviderWrong           21                       # Number of times TAGE Alt Match is the bimodal and it is the provider and the prediction is wrong (Count)
system.cpu0.branchPred.tage.bimodalProviderWrong          361                       # Number of times there are no hits on the TAGE tables and the bimodal prediction is wrong (Count)
system.cpu0.branchPred.tage.altMatchProviderWouldHaveHit            8                       # Number of times TAGE Longest Match is the provider, the prediction is wrong and Alt Match prediction was correct (Count)
system.cpu0.branchPred.tage.longestMatchProviderWouldHaveHit           22                       # Number of times TAGE Alt Match is the provider, the prediction is wrong and Longest Match prediction was correct (Count)
system.cpu0.branchPred.tage.longestMatchProvider::0            0                       # TAGE provider for longest match (Count)
system.cpu0.branchPred.tage.longestMatchProvider::1          777                       # TAGE provider for longest match (Count)
system.cpu0.branchPred.tage.longestMatchProvider::2         1573                       # TAGE provider for longest match (Count)
system.cpu0.branchPred.tage.longestMatchProvider::3         1332                       # TAGE provider for longest match (Count)
system.cpu0.branchPred.tage.longestMatchProvider::4          384                       # TAGE provider for longest match (Count)
system.cpu0.branchPred.tage.longestMatchProvider::5          152                       # TAGE provider for longest match (Count)
system.cpu0.branchPred.tage.longestMatchProvider::6          115                       # TAGE provider for longest match (Count)
system.cpu0.branchPred.tage.longestMatchProvider::7          873                       # TAGE provider for longest match (Count)
system.cpu0.branchPred.tage.altMatchProvider::0         3365                       # TAGE provider for alt match (Count)
system.cpu0.branchPred.tage.altMatchProvider::1          421                       # TAGE provider for alt match (Count)
system.cpu0.branchPred.tage.altMatchProvider::2          309                       # TAGE provider for alt match (Count)
system.cpu0.branchPred.tage.altMatchProvider::3           12                       # TAGE provider for alt match (Count)
system.cpu0.branchPred.tage.altMatchProvider::4          126                       # TAGE provider for alt match (Count)
system.cpu0.branchPred.tage.altMatchProvider::5          100                       # TAGE provider for alt match (Count)
system.cpu0.branchPred.tage.altMatchProvider::6          873                       # TAGE provider for alt match (Count)
system.cpu0.branchPred.tage.altMatchProvider::7            0                       # TAGE provider for alt match (Count)
system.cpu0.clk_domain.clock                      500                       # Clock period in ticks (Tick)
system.cpu0.clk_domain.voltage_domain.voltage            1                       # Voltage in Volts (Volt)
system.cpu0.commit.commitSquashedInsts          14940                       # The number of squashed insts skipped by commit (Count)
system.cpu0.commit.commitNonSpecStalls             72                       # The number of times commit has been forced to stall to communicate backwards (Count)
system.cpu0.commit.branchMispredicts              564                       # The number of times a branch was mispredicted (Count)
system.cpu0.commit.numCommittedDist::samples       104654                       # Number of insts commited each cycle (Count)
system.cpu0.commit.numCommittedDist::mean     2.263678                       # Number of insts commited each cycle (Count)
system.cpu0.commit.numCommittedDist::stdev     1.790742                       # Number of insts commited each cycle (Count)
system.cpu0.commit.numCommittedDist::underflows            0      0.00%      0.00% # Number of insts commited each cycle (Count)
system.cpu0.commit.numCommittedDist::0          34366     32.84%     32.84% # Number of insts commited each cycle (Count)
system.cpu0.commit.numCommittedDist::1           6790      6.49%     39.33% # Number of insts commited each cycle (Count)
system.cpu0.commit.numCommittedDist::2           8132      7.77%     47.10% # Number of insts commited each cycle (Count)
system.cpu0.commit.numCommittedDist::3           7615      7.28%     54.37% # Number of insts commited each cycle (Count)
system.cpu0.commit.numCommittedDist::4          47751     45.63%    100.00% # Number of insts commited each cycle (Count)
system.cpu0.commit.numCommittedDist::overflows            0      0.00%    100.00% # Number of insts commited each cycle (Count)
system.cpu0.commit.numCommittedDist::min_value            0                       # Number of insts commited each cycle (Count)
system.cpu0.commit.numCommittedDist::max_value            4                       # Number of insts commited each cycle (Count)
system.cpu0.commit.numCommittedDist::total       104654                       # Number of insts commited each cycle (Count)
system.cpu0.commit.amos                             0                       # Number of atomic instructions committed (Count)
system.cpu0.commit.membars                         48                       # Number of memory barriers committed (Count)
system.cpu0.commit.functionCalls                 2361                       # Number of function calls committed. (Count)
system.cpu0.commit.committedInstType_0::No_OpClass          297      0.13%      0.13% # Class of committed instruction (Count)
system.cpu0.commit.committedInstType_0::IntAlu       205688     86.82%     86.95% # Class of committed instruction (Count)
system.cpu0.commit.committedInstType_0::IntMult           41      0.02%     86.97% # Class of committed instruction (Count)
system.cpu0.commit.committedInstType_0::IntDiv           28      0.01%     86.98% # Class of committed instruction (Count)
system.cpu0.commit.committedInstType_0::FloatAdd          150      0.06%     87.04% # Class of committed instruction (Count)
system.cpu0.commit.committedInstType_0::FloatCmp            0      0.00%     87.04% # Class of committed instruction (Count)
system.cpu0.commit.committedInstType_0::FloatCvt            0      0.00%     87.04% # Class of committed instruction (Count)
system.cpu0.commit.committedInstType_0::FloatMult            0      0.00%     87.04% # Class of committed instruction (Count)
system.cpu0.commit.committedInstType_0::FloatMultAcc            0      0.00%     87.04% # Class of committed instruction (Count)
system.cpu0.commit.committedInstType_0::FloatDiv            0      0.00%     87.04% # Class of committed instruction (Count)
system.cpu0.commit.committedInstType_0::FloatMisc            0      0.00%     87.04% # Class of committed instruction (Count)
system.cpu0.commit.committedInstType_0::FloatSqrt            0      0.00%     87.04% # Class of committed instruction (Count)
system.cpu0.commit.committedInstType_0::SimdAdd           10      0.00%     87.05% # Class of committed instruction (Count)
system.cpu0.commit.committedInstType_0::SimdAddAcc            0      0.00%     87.05% # Class of committed instruction (Count)
system.cpu0.commit.committedInstType_0::SimdAlu          241      0.10%     87.15% # Class of committed instruction (Count)
system.cpu0.commit.committedInstType_0::SimdCmp            0      0.00%     87.15% # Class of committed instruction (Count)
system.cpu0.commit.committedInstType_0::SimdCvt           70      0.03%     87.18% # Class of committed instruction (Count)
system.cpu0.commit.committedInstType_0::SimdMisc          226      0.10%     87.27% # Class of committed instruction (Count)
system.cpu0.commit.committedInstType_0::SimdMult            0      0.00%     87.27% # Class of committed instruction (Count)
system.cpu0.commit.committedInstType_0::SimdMultAcc            0      0.00%     87.27% # Class of committed instruction (Count)
system.cpu0.commit.committedInstType_0::SimdMatMultAcc            0      0.00%     87.27% # Class of committed instruction (Count)
system.cpu0.commit.committedInstType_0::SimdShift            3      0.00%     87.27% # Class of committed instruction (Count)
system.cpu0.commit.committedInstType_0::SimdShiftAcc            0      0.00%     87.27% # Class of committed instruction (Count)
system.cpu0.commit.committedInstType_0::SimdDiv            0      0.00%     87.27% # Class of committed instruction (Count)
system.cpu0.commit.committedInstType_0::SimdSqrt            0      0.00%     87.27% # Class of committed instruction (Count)
system.cpu0.commit.committedInstType_0::SimdFloatAdd            0      0.00%     87.27% # Class of committed instruction (Count)
system.cpu0.commit.committedInstType_0::SimdFloatAlu            0      0.00%     87.27% # Class of committed instruction (Count)
system.cpu0.commit.committedInstType_0::SimdFloatCmp            0      0.00%     87.27% # Class of committed instruction (Count)
system.cpu0.commit.committedInstType_0::SimdFloatCvt            0      0.00%     87.27% # Class of committed instruction (Count)
system.cpu0.commit.committedInstType_0::SimdFloatDiv            0      0.00%     87.27% # Class of committed instruction (Count)
system.cpu0.commit.committedInstType_0::SimdFloatMisc            0      0.00%     87.27% # Class of committed instruction (Count)
system.cpu0.commit.committedInstType_0::SimdFloatMult            0      0.00%     87.27% # Class of committed instruction (Count)
system.cpu0.commit.committedInstType_0::SimdFloatMultAcc            0      0.00%     87.27% # Class of committed instruction (Count)
system.cpu0.commit.committedInstType_0::SimdFloatMatMultAcc            0      0.00%     87.27% # Class of committed instruction (Count)
system.cpu0.commit.committedInstType_0::SimdFloatSqrt            0      0.00%     87.27% # Class of committed instruction (Count)
system.cpu0.commit.committedInstType_0::SimdReduceAdd            0      0.00%     87.27% # Class of committed instruction (Count)
system.cpu0.commit.committedInstType_0::SimdReduceAlu            0      0.00%     87.27% # Class of committed instruction (Count)
system.cpu0.commit.committedInstType_0::SimdReduceCmp            0      0.00%     87.27% # Class of committed instruction (Count)
system.cpu0.commit.committedInstType_0::SimdFloatReduceAdd            0      0.00%     87.27% # Class of committed instruction (Count)
system.cpu0.commit.committedInstType_0::SimdFloatReduceCmp            0      0.00%     87.27% # Class of committed instruction (Count)
system.cpu0.commit.committedInstType_0::SimdAes            0      0.00%     87.27% # Class of committed instruction (Count)
system.cpu0.commit.committedInstType_0::SimdAesMix            0      0.00%     87.27% # Class of committed instruction (Count)
system.cpu0.commit.committedInstType_0::SimdSha1Hash            0      0.00%     87.27% # Class of committed instruction (Count)
system.cpu0.commit.committedInstType_0::SimdSha1Hash2            0      0.00%     87.27% # Class of committed instruction (Count)
system.cpu0.commit.committedInstType_0::SimdSha256Hash            0      0.00%     87.27% # Class of committed instruction (Count)
system.cpu0.commit.committedInstType_0::SimdSha256Hash2            0      0.00%     87.27% # Class of committed instruction (Count)
system.cpu0.commit.committedInstType_0::SimdShaSigma2            0      0.00%     87.27% # Class of committed instruction (Count)
system.cpu0.commit.committedInstType_0::SimdShaSigma3            0      0.00%     87.27% # Class of committed instruction (Count)
system.cpu0.commit.committedInstType_0::SimdPredAlu            0      0.00%     87.27% # Class of committed instruction (Count)
system.cpu0.commit.committedInstType_0::Matrix            0      0.00%     87.27% # Class of committed instruction (Count)
system.cpu0.commit.committedInstType_0::MatrixMov            0      0.00%     87.27% # Class of committed instruction (Count)
system.cpu0.commit.committedInstType_0::MatrixOP            0      0.00%     87.27% # Class of committed instruction (Count)
system.cpu0.commit.committedInstType_0::MemRead        19298      8.15%     95.42% # Class of committed instruction (Count)
system.cpu0.commit.committedInstType_0::MemWrite        10188      4.30%     99.72% # Class of committed instruction (Count)
system.cpu0.commit.committedInstType_0::FloatMemRead          127      0.05%     99.77% # Class of committed instruction (Count)
system.cpu0.commit.committedInstType_0::FloatMemWrite          536      0.23%    100.00% # Class of committed instruction (Count)
system.cpu0.commit.committedInstType_0::IprAccess            0      0.00%    100.00% # Class of committed instruction (Count)
system.cpu0.commit.committedInstType_0::InstPrefetch            0      0.00%    100.00% # Class of committed instruction (Count)
system.cpu0.commit.committedInstType_0::SimdUnitStrideLoad            0      0.00%    100.00% # Class of committed instruction (Count)
system.cpu0.commit.committedInstType_0::SimdUnitStrideStore            0      0.00%    100.00% # Class of committed instruction (Count)
system.cpu0.commit.committedInstType_0::SimdUnitStrideMaskLoad            0      0.00%    100.00% # Class of committed instruction (Count)
system.cpu0.commit.committedInstType_0::SimdUnitStrideMaskStore            0      0.00%    100.00% # Class of committed instruction (Count)
system.cpu0.commit.committedInstType_0::SimdStridedLoad            0      0.00%    100.00% # Class of committed instruction (Count)
system.cpu0.commit.committedInstType_0::SimdStridedStore            0      0.00%    100.00% # Class of committed instruction (Count)
system.cpu0.commit.committedInstType_0::SimdIndexedLoad            0      0.00%    100.00% # Class of committed instruction (Count)
system.cpu0.commit.committedInstType_0::SimdIndexedStore            0      0.00%    100.00% # Class of committed instruction (Count)
system.cpu0.commit.committedInstType_0::SimdWholeRegisterLoad            0      0.00%    100.00% # Class of committed instruction (Count)
system.cpu0.commit.committedInstType_0::SimdWholeRegisterStore            0      0.00%    100.00% # Class of committed instruction (Count)
system.cpu0.commit.committedInstType_0::SimdUnitStrideFaultOnlyFirstLoad            0      0.00%    100.00% # Class of committed instruction (Count)
system.cpu0.commit.committedInstType_0::SimdUnitStrideSegmentedLoad            0      0.00%    100.00% # Class of committed instruction (Count)
system.cpu0.commit.committedInstType_0::SimdUnitStrideSegmentedStore            0      0.00%    100.00% # Class of committed instruction (Count)
system.cpu0.commit.committedInstType_0::SimdExt            0      0.00%    100.00% # Class of committed instruction (Count)
system.cpu0.commit.committedInstType_0::SimdFloatExt            0      0.00%    100.00% # Class of committed instruction (Count)
system.cpu0.commit.committedInstType_0::SimdConfig            0      0.00%    100.00% # Class of committed instruction (Count)
system.cpu0.commit.committedInstType_0::total       236903                       # Class of committed instruction (Count)
system.cpu0.commit.commitEligibleSamples        47751                       # number cycles where commit BW limit reached (Cycle)
system.cpu0.commitStats0.numInsts              130373                       # Number of instructions committed (thread level) (Count)
system.cpu0.commitStats0.numOps                236903                       # Number of ops (including micro ops) committed (thread level) (Count)
system.cpu0.commitStats0.numInstsNotNOP        130373                       # Number of instructions committed excluding NOPs or prefetches (Count)
system.cpu0.commitStats0.numOpsNotNOP          236903                       # Number of Ops (including micro ops) Simulated (Count)
system.cpu0.commitStats0.cpi                 1.095925                       # CPI: cycles per instruction (thread level) ((Cycle/Count))
system.cpu0.commitStats0.ipc                 0.912471                       # IPC: instructions per cycle (thread level) ((Count/Cycle))
system.cpu0.commitStats0.numMemRefs             30149                       # Number of memory references committed (Count)
system.cpu0.commitStats0.numFpInsts              1515                       # Number of float instructions (Count)
system.cpu0.commitStats0.numIntInsts           235713                       # Number of integer instructions (Count)
system.cpu0.commitStats0.numLoadInsts           19425                       # Number of load instructions (Count)
system.cpu0.commitStats0.numStoreInsts          10724                       # Number of store instructions (Count)
system.cpu0.commitStats0.numVecInsts                0                       # Number of vector instructions (Count)
system.cpu0.commitStats0.committedInstType::No_OpClass          297      0.13%      0.13% # Class of committed instruction. (Count)
system.cpu0.commitStats0.committedInstType::IntAlu       205688     86.82%     86.95% # Class of committed instruction. (Count)
system.cpu0.commitStats0.committedInstType::IntMult           41      0.02%     86.97% # Class of committed instruction. (Count)
system.cpu0.commitStats0.committedInstType::IntDiv           28      0.01%     86.98% # Class of committed instruction. (Count)
system.cpu0.commitStats0.committedInstType::FloatAdd          150      0.06%     87.04% # Class of committed instruction. (Count)
system.cpu0.commitStats0.committedInstType::FloatCmp            0      0.00%     87.04% # Class of committed instruction. (Count)
system.cpu0.commitStats0.committedInstType::FloatCvt            0      0.00%     87.04% # Class of committed instruction. (Count)
system.cpu0.commitStats0.committedInstType::FloatMult            0      0.00%     87.04% # Class of committed instruction. (Count)
system.cpu0.commitStats0.committedInstType::FloatMultAcc            0      0.00%     87.04% # Class of committed instruction. (Count)
system.cpu0.commitStats0.committedInstType::FloatDiv            0      0.00%     87.04% # Class of committed instruction. (Count)
system.cpu0.commitStats0.committedInstType::FloatMisc            0      0.00%     87.04% # Class of committed instruction. (Count)
system.cpu0.commitStats0.committedInstType::FloatSqrt            0      0.00%     87.04% # Class of committed instruction. (Count)
system.cpu0.commitStats0.committedInstType::SimdAdd           10      0.00%     87.05% # Class of committed instruction. (Count)
system.cpu0.commitStats0.committedInstType::SimdAddAcc            0      0.00%     87.05% # Class of committed instruction. (Count)
system.cpu0.commitStats0.committedInstType::SimdAlu          241      0.10%     87.15% # Class of committed instruction. (Count)
system.cpu0.commitStats0.committedInstType::SimdCmp            0      0.00%     87.15% # Class of committed instruction. (Count)
system.cpu0.commitStats0.committedInstType::SimdCvt           70      0.03%     87.18% # Class of committed instruction. (Count)
system.cpu0.commitStats0.committedInstType::SimdMisc          226      0.10%     87.27% # Class of committed instruction. (Count)
system.cpu0.commitStats0.committedInstType::SimdMult            0      0.00%     87.27% # Class of committed instruction. (Count)
system.cpu0.commitStats0.committedInstType::SimdMultAcc            0      0.00%     87.27% # Class of committed instruction. (Count)
system.cpu0.commitStats0.committedInstType::SimdMatMultAcc            0      0.00%     87.27% # Class of committed instruction. (Count)
system.cpu0.commitStats0.committedInstType::SimdShift            3      0.00%     87.27% # Class of committed instruction. (Count)
system.cpu0.commitStats0.committedInstType::SimdShiftAcc            0      0.00%     87.27% # Class of committed instruction. (Count)
system.cpu0.commitStats0.committedInstType::SimdDiv            0      0.00%     87.27% # Class of committed instruction. (Count)
system.cpu0.commitStats0.committedInstType::SimdSqrt            0      0.00%     87.27% # Class of committed instruction. (Count)
system.cpu0.commitStats0.committedInstType::SimdFloatAdd            0      0.00%     87.27% # Class of committed instruction. (Count)
system.cpu0.commitStats0.committedInstType::SimdFloatAlu            0      0.00%     87.27% # Class of committed instruction. (Count)
system.cpu0.commitStats0.committedInstType::SimdFloatCmp            0      0.00%     87.27% # Class of committed instruction. (Count)
system.cpu0.commitStats0.committedInstType::SimdFloatCvt            0      0.00%     87.27% # Class of committed instruction. (Count)
system.cpu0.commitStats0.committedInstType::SimdFloatDiv            0      0.00%     87.27% # Class of committed instruction. (Count)
system.cpu0.commitStats0.committedInstType::SimdFloatMisc            0      0.00%     87.27% # Class of committed instruction. (Count)
system.cpu0.commitStats0.committedInstType::SimdFloatMult            0      0.00%     87.27% # Class of committed instruction. (Count)
system.cpu0.commitStats0.committedInstType::SimdFloatMultAcc            0      0.00%     87.27% # Class of committed instruction. (Count)
system.cpu0.commitStats0.committedInstType::SimdFloatMatMultAcc            0      0.00%     87.27% # Class of committed instruction. (Count)
system.cpu0.commitStats0.committedInstType::SimdFloatSqrt            0      0.00%     87.27% # Class of committed instruction. (Count)
system.cpu0.commitStats0.committedInstType::SimdReduceAdd            0      0.00%     87.27% # Class of committed instruction. (Count)
system.cpu0.commitStats0.committedInstType::SimdReduceAlu            0      0.00%     87.27% # Class of committed instruction. (Count)
system.cpu0.commitStats0.committedInstType::SimdReduceCmp            0      0.00%     87.27% # Class of committed instruction. (Count)
system.cpu0.commitStats0.committedInstType::SimdFloatReduceAdd            0      0.00%     87.27% # Class of committed instruction. (Count)
system.cpu0.commitStats0.committedInstType::SimdFloatReduceCmp            0      0.00%     87.27% # Class of committed instruction. (Count)
system.cpu0.commitStats0.committedInstType::SimdAes            0      0.00%     87.27% # Class of committed instruction. (Count)
system.cpu0.commitStats0.committedInstType::SimdAesMix            0      0.00%     87.27% # Class of committed instruction. (Count)
system.cpu0.commitStats0.committedInstType::SimdSha1Hash            0      0.00%     87.27% # Class of committed instruction. (Count)
system.cpu0.commitStats0.committedInstType::SimdSha1Hash2            0      0.00%     87.27% # Class of committed instruction. (Count)
system.cpu0.commitStats0.committedInstType::SimdSha256Hash            0      0.00%     87.27% # Class of committed instruction. (Count)
system.cpu0.commitStats0.committedInstType::SimdSha256Hash2            0      0.00%     87.27% # Class of committed instruction. (Count)
system.cpu0.commitStats0.committedInstType::SimdShaSigma2            0      0.00%     87.27% # Class of committed instruction. (Count)
system.cpu0.commitStats0.committedInstType::SimdShaSigma3            0      0.00%     87.27% # Class of committed instruction. (Count)
system.cpu0.commitStats0.committedInstType::SimdPredAlu            0      0.00%     87.27% # Class of committed instruction. (Count)
system.cpu0.commitStats0.committedInstType::Matrix            0      0.00%     87.27% # Class of committed instruction. (Count)
system.cpu0.commitStats0.committedInstType::MatrixMov            0      0.00%     87.27% # Class of committed instruction. (Count)
system.cpu0.commitStats0.committedInstType::MatrixOP            0      0.00%     87.27% # Class of committed instruction. (Count)
system.cpu0.commitStats0.committedInstType::MemRead        19298      8.15%     95.42% # Class of committed instruction. (Count)
system.cpu0.commitStats0.committedInstType::MemWrite        10188      4.30%     99.72% # Class of committed instruction. (Count)
system.cpu0.commitStats0.committedInstType::FloatMemRead          127      0.05%     99.77% # Class of committed instruction. (Count)
system.cpu0.commitStats0.committedInstType::FloatMemWrite          536      0.23%    100.00% # Class of committed instruction. (Count)
system.cpu0.commitStats0.committedInstType::IprAccess            0      0.00%    100.00% # Class of committed instruction. (Count)
system.cpu0.commitStats0.committedInstType::InstPrefetch            0      0.00%    100.00% # Class of committed instruction. (Count)
system.cpu0.commitStats0.committedInstType::SimdUnitStrideLoad            0      0.00%    100.00% # Class of committed instruction. (Count)
system.cpu0.commitStats0.committedInstType::SimdUnitStrideStore            0      0.00%    100.00% # Class of committed instruction. (Count)
system.cpu0.commitStats0.committedInstType::SimdUnitStrideMaskLoad            0      0.00%    100.00% # Class of committed instruction. (Count)
system.cpu0.commitStats0.committedInstType::SimdUnitStrideMaskStore            0      0.00%    100.00% # Class of committed instruction. (Count)
system.cpu0.commitStats0.committedInstType::SimdStridedLoad            0      0.00%    100.00% # Class of committed instruction. (Count)
system.cpu0.commitStats0.committedInstType::SimdStridedStore            0      0.00%    100.00% # Class of committed instruction. (Count)
system.cpu0.commitStats0.committedInstType::SimdIndexedLoad            0      0.00%    100.00% # Class of committed instruction. (Count)
system.cpu0.commitStats0.committedInstType::SimdIndexedStore            0      0.00%    100.00% # Class of committed instruction. (Count)
system.cpu0.commitStats0.committedInstType::SimdWholeRegisterLoad            0      0.00%    100.00% # Class of committed instruction. (Count)
system.cpu0.commitStats0.committedInstType::SimdWholeRegisterStore            0      0.00%    100.00% # Class of committed instruction. (Count)
system.cpu0.commitStats0.committedInstType::SimdUnitStrideFaultOnlyFirstLoad            0      0.00%    100.00% # Class of committed instruction. (Count)
system.cpu0.commitStats0.committedInstType::SimdUnitStrideSegmentedLoad            0      0.00%    100.00% # Class of committed instruction. (Count)
system.cpu0.commitStats0.committedInstType::SimdUnitStrideSegmentedStore            0      0.00%    100.00% # Class of committed instruction. (Count)
system.cpu0.commitStats0.committedInstType::SimdExt            0      0.00%    100.00% # Class of committed instruction. (Count)
system.cpu0.commitStats0.committedInstType::SimdFloatExt            0      0.00%    100.00% # Class of committed instruction. (Count)
system.cpu0.commitStats0.committedInstType::SimdConfig            0      0.00%    100.00% # Class of committed instruction. (Count)
system.cpu0.commitStats0.committedInstType::total       236903                       # Class of committed instruction. (Count)
system.cpu0.commitStats0.committedControl::IsControl        33201                       # Class of control type instructions committed (Count)
system.cpu0.commitStats0.committedControl::IsDirectControl        28661                       # Class of control type instructions committed (Count)
system.cpu0.commitStats0.committedControl::IsIndirectControl         4540                       # Class of control type instructions committed (Count)
system.cpu0.commitStats0.committedControl::IsCondControl        23038                       # Class of control type instructions committed (Count)
system.cpu0.commitStats0.committedControl::IsUncondControl        10163                       # Class of control type instructions committed (Count)
system.cpu0.commitStats0.committedControl::IsCall         2361                       # Class of control type instructions committed (Count)
system.cpu0.commitStats0.committedControl::IsReturn         2356                       # Class of control type instructions committed (Count)
system.cpu0.dcache.demandHits::cpu0.data        28109                       # number of demand (read+write) hits (Count)
system.cpu0.dcache.demandHits::total            28109                       # number of demand (read+write) hits (Count)
system.cpu0.dcache.overallHits::cpu0.data        28109                       # number of overall hits (Count)
system.cpu0.dcache.overallHits::total           28109                       # number of overall hits (Count)
system.cpu0.dcache.demandMisses::cpu0.data          606                       # number of demand (read+write) misses (Count)
system.cpu0.dcache.demandMisses::total            606                       # number of demand (read+write) misses (Count)
[...]
system.mem_ctrl.dram.perBankRdBursts::7            48                       # Per bank write bursts (Count)
system.mem_ctrl.dram.perBankRdBursts::8            32                       # Per bank write bursts (Count)
system.mem_ctrl.dram.perBankRdBursts::9            10                       # Per bank write bursts (Count)
system.mem_ctrl.dram.perBankRdBursts::10            4                       # Per bank write bursts (Count)
system.mem_ctrl.dram.perBankRdBursts::11            7                       # Per bank write bursts (Count)
system.mem_ctrl.dram.perBankRdBursts::12           40                       # Per bank write bursts (Count)
system.mem_ctrl.dram.perBankRdBursts::13           66                       # Per bank write bursts (Count)
system.mem_ctrl.dram.perBankRdBursts::14          141                       # Per bank write bursts (Count)
system.mem_ctrl.dram.perBankRdBursts::15          146                       # Per bank write bursts (Count)
system.mem_ctrl.dram.perBankRdBursts::16          155                       # Per bank write bursts (Count)
system.mem_ctrl.dram.perBankRdBursts::17          185                       # Per bank write bursts (Count)
system.mem_ctrl.dram.perBankRdBursts::18           32                       # Per bank write bursts (Count)
system.mem_ctrl.dram.perBankRdBursts::19            5                       # Per bank write bursts (Count)
system.mem_ctrl.dram.perBankRdBursts::20           75                       # Per bank write bursts (Count)
system.mem_ctrl.dram.perBankRdBursts::21           85                       # Per bank write bursts (Count)
system.mem_ctrl.dram.perBankRdBursts::22           27                       # Per bank write bursts (Count)
system.mem_ctrl.dram.perBankRdBursts::23            0                       # Per bank write bursts (Count)
system.mem_ctrl.dram.perBankRdBursts::24           24                       # Per bank write bursts (Count)
system.mem_ctrl.dram.perBankRdBursts::25           23                       # Per bank write bursts (Count)
system.mem_ctrl.dram.perBankRdBursts::26           26                       # Per bank write bursts (Count)
system.mem_ctrl.dram.perBankRdBursts::27           35                       # Per bank write bursts (Count)
system.mem_ctrl.dram.perBankRdBursts::28            0                       # Per bank write bursts (Count)
system.mem_ctrl.dram.perBankRdBursts::29           33                       # Per bank write bursts (Count)
system.mem_ctrl.dram.perBankRdBursts::30           29                       # Per bank write bursts (Count)
system.mem_ctrl.dram.perBankRdBursts::31            7                       # Per bank write bursts (Count)
system.mem_ctrl.dram.perBankWrBursts::0             0                       # Per bank write bursts (Count)
system.mem_ctrl.dram.perBankWrBursts::1             0                       # Per bank write bursts (Count)
system.mem_ctrl.dram.perBankWrBursts::2             0                       # Per bank write bursts (Count)
system.mem_ctrl.dram.perBankWrBursts::3             0                       # Per bank write bursts (Count)
system.mem_ctrl.dram.perBankWrBursts::4             0                       # Per bank write bursts (Count)
system.mem_ctrl.dram.perBankWrBursts::5             0                       # Per bank write bursts (Count)
system.mem_ctrl.dram.perBankWrBursts::6             0                       # Per bank write bursts (Count)
system.mem_ctrl.dram.perBankWrBursts::7             0                       # Per bank write bursts (Count)
system.mem_ctrl.dram.perBankWrBursts::8             0                       # Per bank write bursts (Count)
system.mem_ctrl.dram.perBankWrBursts::9             0                       # Per bank write bursts (Count)
system.mem_ctrl.dram.perBankWrBursts::10            0                       # Per bank write bursts (Count)
system.mem_ctrl.dram.perBankWrBursts::11            0                       # Per bank write bursts (Count)
system.mem_ctrl.dram.perBankWrBursts::12            0                       # Per bank write bursts (Count)
system.mem_ctrl.dram.perBankWrBursts::13            0                       # Per bank write bursts (Count)
system.mem_ctrl.dram.perBankWrBursts::14            0                       # Per bank write bursts (Count)
system.mem_ctrl.dram.perBankWrBursts::15            0                       # Per bank write bursts (Count)
system.mem_ctrl.dram.perBankWrBursts::16            0                       # Per bank write bursts (Count)
system.mem_ctrl.dram.perBankWrBursts::17            0                       # Per bank write bursts (Count)
system.mem_ctrl.dram.perBankWrBursts::18            0                       # Per bank write bursts (Count)
system.mem_ctrl.dram.perBankWrBursts::19            0                       # Per bank write bursts (Count)
system.mem_ctrl.dram.perBankWrBursts::20            0                       # Per bank write bursts (Count)
system.mem_ctrl.dram.perBankWrBursts::21            0                       # Per bank write bursts (Count)
system.mem_ctrl.dram.perBankWrBursts::22            0                       # Per bank write bursts (Count)
system.mem_ctrl.dram.perBankWrBursts::23            0                       # Per bank write bursts (Count)
system.mem_ctrl.dram.perBankWrBursts::24            0                       # Per bank write bursts (Count)
system.mem_ctrl.dram.perBankWrBursts::25            0                       # Per bank write bursts (Count)
system.mem_ctrl.dram.perBankWrBursts::26            0                       # Per bank write bursts (Count)
system.mem_ctrl.dram.perBankWrBursts::27            0                       # Per bank write bursts (Count)
system.mem_ctrl.dram.perBankWrBursts::28            0                       # Per bank write bursts (Count)
system.mem_ctrl.dram.perBankWrBursts::29            0                       # Per bank write bursts (Count)
system.mem_ctrl.dram.perBankWrBursts::30            0                       # Per bank write bursts (Count)
system.mem_ctrl.dram.perBankWrBursts::31            0                       # Per bank write bursts (Count)
system.mem_ctrl.dram.totQLat                 19317719                       # Total ticks spent queuing (Tick)
system.mem_ctrl.dram.totBusLat                5194588                       # Total ticks spent in databus transfers (Tick)
system.mem_ctrl.dram.totMemAccLat            46587747                       # Total ticks spent from burst creation until serviced by the DRAM (Tick)
system.mem_ctrl.dram.avgQLat                 12391.10                       # Average queueing delay per DRAM burst ((Tick/Count))
system.mem_ctrl.dram.avgBusLat                3332.00                       # Average bus latency per DRAM burst ((Tick/Count))
system.mem_ctrl.dram.avgMemAccLat            29883.10                       # Average memory access latency per DRAM burst ((Tick/Count))
system.mem_ctrl.dram.readRowHits                 1375                       # Number of row buffer hits during reads (Count)
system.mem_ctrl.dram.writeRowHits                   0                       # Number of row buffer hits during writes (Count)
system.mem_ctrl.dram.readRowHitRate             88.20                       # Row buffer hit rate for reads (Ratio)
system.mem_ctrl.dram.writeRowHitRate              nan                       # Row buffer hit rate for writes (Ratio)
system.mem_ctrl.dram.bytesPerActivate::samples          179                       # Bytes accessed per row activation (Byte)
system.mem_ctrl.dram.bytesPerActivate::mean   550.614525                       # Bytes accessed per row activation (Byte)
system.mem_ctrl.dram.bytesPerActivate::gmean   352.118831                       # Bytes accessed per row activation (Byte)
system.mem_ctrl.dram.bytesPerActivate::stdev   403.200513                       # Bytes accessed per row activation (Byte)
system.mem_ctrl.dram.bytesPerActivate::0-127           35     19.55%     19.55% # Bytes accessed per row activation (Byte)
system.mem_ctrl.dram.bytesPerActivate::128-255           33     18.44%     37.99% # Bytes accessed per row activation (Byte)
system.mem_ctrl.dram.bytesPerActivate::256-383           11      6.15%     44.13% # Bytes accessed per row activation (Byte)
system.mem_ctrl.dram.bytesPerActivate::384-511            7      3.91%     48.04% # Bytes accessed per row activation (Byte)
system.mem_ctrl.dram.bytesPerActivate::512-639            7      3.91%     51.96% # Bytes accessed per row activation (Byte)
system.mem_ctrl.dram.bytesPerActivate::640-767           10      5.59%     57.54% # Bytes accessed per row activation (Byte)
system.mem_ctrl.dram.bytesPerActivate::768-895           11      6.15%     63.69% # Bytes accessed per row activation (Byte)
system.mem_ctrl.dram.bytesPerActivate::896-1023            7      3.91%     67.60% # Bytes accessed per row activation (Byte)
system.mem_ctrl.dram.bytesPerActivate::1024-1151           58     32.40%    100.00% # Bytes accessed per row activation (Byte)
system.mem_ctrl.dram.bytesPerActivate::total          179                       # Bytes accessed per row activation (Byte)
system.mem_ctrl.dram.dramBytesRead              99776                       # Total bytes read (Byte)
system.mem_ctrl.dram.dramBytesWritten               0                       # Total bytes written (Byte)
system.mem_ctrl.dram.avgRdBW              1396.679638                       # Average DRAM read bandwidth in MiBytes/s ((Byte/Second))
system.mem_ctrl.dram.avgWrBW                        0                       # Average DRAM write bandwidth in MiBytes/s ((Byte/Second))
system.mem_ctrl.dram.peakBW                  19207.00                       # Theoretical peak bandwidth in MiByte/s ((Byte/Second))
system.mem_ctrl.dram.busUtil                     7.27                       # Data bus utilization in percentage (Ratio)
system.mem_ctrl.dram.busUtilRead                 7.27                       # Data bus utilization in percentage for reads (Ratio)
system.mem_ctrl.dram.busUtilWrite                0.00                       # Data bus utilization in percentage for writes (Ratio)
system.mem_ctrl.dram.pageHitRate                88.20                       # Row buffer hit rate, read and write combined (Ratio)
system.mem_ctrl.dram.power_state.pwrStateResidencyTicks::UNDEFINED     71438000                       # Cumulative time (in ticks) in various power states (Tick)
system.mem_ctrl.dram.rank0.actEnergy     286925.184000                       # Energy for activate commands per rank (pJ) (Joule)
system.mem_ctrl.dram.rank0.preEnergy     364877.990400                       # Energy for precharge commands per rank (pJ) (Joule)
system.mem_ctrl.dram.rank0.readEnergy    3440767.142400                       # Energy for read commands per rank (pJ) (Joule)
system.mem_ctrl.dram.rank0.writeEnergy              0                       # Energy for write commands per rank (pJ) (Joule)
system.mem_ctrl.dram.rank0.refreshEnergy 12468398.644800                       # Energy for refresh commands per rank (pJ) (Joule)
system.mem_ctrl.dram.rank0.actBackEnergy 44295994.512000                       # Energy for active background per rank (pJ) (Joule)
system.mem_ctrl.dram.rank0.preBackEnergy 12599438.208000                       # Energy for precharge background per rank (pJ) (Joule)
system.mem_ctrl.dram.rank0.actPowerDownEnergy            0                       # Energy for active power-down per rank (pJ) (Joule)
system.mem_ctrl.dram.rank0.prePowerDownEnergy            0                       # Energy for precharge power-down per rank (pJ) (Joule)
system.mem_ctrl.dram.rank0.selfRefreshEnergy            0                       # Energy for self refresh per rank (pJ) (Joule)
system.mem_ctrl.dram.rank0.totalEnergy   73456401.681600                       # Total energy per rank (pJ) (Joule)
system.mem_ctrl.dram.rank0.averagePower   1028.253894                       # Core power per rank (mW) (Watt)
system.mem_ctrl.dram.rank0.totalIdleTime            0                       # Total Idle time Per DRAM Rank (Tick)
system.mem_ctrl.dram.rank0.pwrStateTime::IDLE     18882188                       # Time in different power states (Tick)
system.mem_ctrl.dram.rank0.pwrStateTime::REF      3150000                       # Time in different power states (Tick)
system.mem_ctrl.dram.rank0.pwrStateTime::SREF            0                       # Time in different power states (Tick)
system.mem_ctrl.dram.rank0.pwrStateTime::PRE_PDN            0                       # Time in different power states (Tick)
system.mem_ctrl.dram.rank0.pwrStateTime::ACT     49405812                       # Time in different power states (Tick)
system.mem_ctrl.dram.rank0.pwrStateTime::ACT_PDN            0                       # Time in different power states (Tick)
system.mem_ctrl.dram.rank1.actEnergy     286925.184000                       # Energy for activate commands per rank (pJ) (Joule)
system.mem_ctrl.dram.rank1.preEnergy     377317.012800                       # Energy for precharge commands per rank (pJ) (Joule)
system.mem_ctrl.dram.rank1.readEnergy    3116880.748800                       # Energy for read commands per rank (pJ) (Joule)
system.mem_ctrl.dram.rank1.writeEnergy              0                       # Energy for write commands per rank (pJ) (Joule)
system.mem_ctrl.dram.rank1.refreshEnergy 12468398.644800                       # Energy for refresh commands per rank (pJ) (Joule)
system.mem_ctrl.dram.rank1.actBackEnergy 46366773.868800                       # Energy for active background per rank (pJ) (Joule)
system.mem_ctrl.dram.rank1.preBackEnergy 11008330.905600                       # Energy for precharge background per rank (pJ) (Joule)
system.mem_ctrl.dram.rank1.actPowerDownEnergy            0                       # Energy for active power-down per rank (pJ) (Joule)
system.mem_ctrl.dram.rank1.prePowerDownEnergy            0                       # Energy for precharge power-down per rank (pJ) (Joule)
system.mem_ctrl.dram.rank1.selfRefreshEnergy            0                       # Energy for self refresh per rank (pJ) (Joule)
system.mem_ctrl.dram.rank1.totalEnergy   73624626.364800                       # Total energy per rank (pJ) (Joule)
system.mem_ctrl.dram.rank1.averagePower   1030.608729                       # Core power per rank (mW) (Watt)
system.mem_ctrl.dram.rank1.totalIdleTime            0                       # Total Idle time Per DRAM Rank (Tick)
system.mem_ctrl.dram.rank1.pwrStateTime::IDLE     16445136                       # Time in different power states (Tick)
system.mem_ctrl.dram.rank1.pwrStateTime::REF      3150000                       # Time in different power states (Tick)
system.mem_ctrl.dram.rank1.pwrStateTime::SREF            0                       # Time in different power states (Tick)
system.mem_ctrl.dram.rank1.pwrStateTime::PRE_PDN            0                       # Time in different power states (Tick)
system.mem_ctrl.dram.rank1.pwrStateTime::ACT     51842864                       # Time in different power states (Tick)
system.mem_ctrl.dram.rank1.pwrStateTime::ACT_PDN            0                       # Time in different power states (Tick)
system.mem_ctrl.power_state.pwrStateResidencyTicks::UNDEFINED     71438000                       # Cumulative time (in ticks) in various power states (Tick)
system.membus.transDist::ReadResp                1483                       # Transaction distribution (Count)
system.membus.transDist::ReadExReq                 76                       # Transaction distribution (Count)
system.membus.transDist::ReadExResp                76                       # Transaction distribution (Count)
system.membus.transDist::ReadSharedReq           1483                       # Transaction distribution (Count)
system.membus.pktCount_system.l2cache.mem_side_port::system.mem_ctrl.port         3118                       # Packet count per connected requestor and responder (Count)
system.membus.pktCount_system.l2cache.mem_side_port::total         3118                       # Packet count per connected requestor and responder (Count)
system.membus.pktCount::total                    3118                       # Packet count per connected requestor and responder (Count)
system.membus.pktSize_system.l2cache.mem_side_port::system.mem_ctrl.port        99776                       # Cumulative packet size per connected requestor and responder (Byte)
system.membus.pktSize_system.l2cache.mem_side_port::total        99776                       # Cumulative packet size per connected requestor and responder (Byte)
system.membus.pktSize::total                    99776                       # Cumulative packet size per connected requestor and responder (Byte)
system.membus.snoops                                0                       # Total snoops (Count)
system.membus.snoopTraffic                          0                       # Total snoop traffic (Byte)
system.membus.snoopFanout::samples               1559                       # Request fanout histogram (Count)
system.membus.snoopFanout::mean                     0                       # Request fanout histogram (Count)
system.membus.snoopFanout::stdev                    0                       # Request fanout histogram (Count)
system.membus.snoopFanout::underflows               0      0.00%      0.00% # Request fanout histogram (Count)
system.membus.snoopFanout::0                     1559    100.00%    100.00% # Request fanout histogram (Count)
system.membus.snoopFanout::1                        0      0.00%    100.00% # Request fanout histogram (Count)
system.membus.snoopFanout::overflows                0      0.00%    100.00% # Request fanout histogram (Count)
system.membus.snoopFanout::min_value                0                       # Request fanout histogram (Count)
system.membus.snoopFanout::max_value                0                       # Request fanout histogram (Count)
system.membus.snoopFanout::total                 1559                       # Request fanout histogram (Count)
system.membus.power_state.pwrStateResidencyTicks::UNDEFINED     71438000                       # Cumulative time (in ticks) in various power states (Tick)
system.membus.reqLayer8.occupancy              980898                       # Layer occupancy (ticks) (Tick)
system.membus.reqLayer8.utilization               0.0                       # Layer utilization (Ratio)
system.membus.respLayer4.occupancy            1681253                       # Layer occupancy (ticks) (Tick)
system.membus.respLayer4.utilization              0.0                       # Layer utilization (Ratio)
system.membus.snoop_filter.totRequests           1559                       # Total number of requests made to the snoop filter. (Count)
system.membus.snoop_filter.hitSingleRequests            0                       # Number of requests hitting in the snoop filter with a single holder of the requested data. (Count)
system.membus.snoop_filter.hitMultiRequests            0                       # Number of requests hitting in the snoop filter with multiple (>1) holders of the requested data. (Count)
system.membus.snoop_filter.totSnoops                0                       # Total number of snoops made to the snoop filter. (Count)
system.membus.snoop_filter.hitSingleSnoops            0                       # Number of snoops hitting in the snoop filter with a single holder of the requested data. (Count)
system.membus.snoop_filter.hitMultiSnoops            0                       # Number of snoops hitting in the snoop filter with multiple (>1) holders of the requested data. (Count)
system.workload.inst.arm                            0                       # number of arm instructions executed (Count)
system.workload.inst.quiesce                        0                       # number of quiesce instructions executed (Count)

---------- End Simulation Statistics   ----------
